*SPEF "ieee 1481-1999"
*DESIGN "mac_top"
*DATE "11:11:11 Fri 11 11, 1111"
*VENDOR "OpenRCX"
*PROGRAM "Parallel Extraction"
*VERSION "1.0"
*DESIGN_FLOW "NAME_SCOPE LOCAL" "PIN_CAP NONE"
*DIVIDER /
*DELIMITER :
*BUS_DELIMITER []
*T_UNIT 1 NS
*C_UNIT 1 PF
*R_UNIT 1 OHM
*L_UNIT 1 HENRY

*NAME_MAP
*1 CLK
*2 RST
*3 az[0]
*4 az[10]
*5 az[11]
*6 az[12]
*7 az[13]
*8 az[14]
*9 az[15]
*10 az[16]
*11 az[17]
*12 az[18]
*13 az[19]
*14 az[1]
*15 az[20]
*16 az[21]
*17 az[22]
*18 az[23]
*19 az[24]
*20 az[25]
*21 az[26]
*22 az[27]
*23 az[28]
*24 az[29]
*25 az[2]
*26 az[30]
*27 az[31]
*28 az[3]
*29 az[4]
*30 az[5]
*31 az[6]
*32 az[7]
*33 az[8]
*34 az[9]
*35 mac[0]
*36 mac[10]
*37 mac[11]
*38 mac[12]
*39 mac[13]
*40 mac[14]
*41 mac[15]
*42 mac[16]
*43 mac[17]
*44 mac[18]
*45 mac[19]
*46 mac[1]
*47 mac[20]
*48 mac[21]
*49 mac[22]
*50 mac[23]
*51 mac[24]
*52 mac[25]
*53 mac[26]
*54 mac[27]
*55 mac[28]
*56 mac[29]
*57 mac[2]
*58 mac[30]
*59 mac[31]
*60 mac[3]
*61 mac[4]
*62 mac[5]
*63 mac[6]
*64 mac[7]
*65 mac[8]
*66 mac[9]
*67 mx[0]
*68 mx[10]
*69 mx[11]
*70 mx[12]
*71 mx[13]
*72 mx[14]
*73 mx[15]
*74 mx[1]
*75 mx[2]
*76 mx[3]
*77 mx[4]
*78 mx[5]
*79 mx[6]
*80 mx[7]
*81 mx[8]
*82 mx[9]
*83 my[0]
*84 my[10]
*85 my[11]
*86 my[12]
*87 my[13]
*88 my[14]
*89 my[15]
*90 my[1]
*91 my[2]
*92 my[3]
*93 my[4]
*94 my[5]
*95 my[6]
*96 my[7]
*97 my[8]
*98 my[9]
*101 _0000_
*102 _0001_
*103 _0002_
*104 _0003_
*105 _0004_
*106 _0005_
*107 _0006_
*108 _0007_
*109 _0008_
*110 _0009_
*111 _0010_
*112 _0011_
*113 _0012_
*114 _0013_
*115 _0014_
*116 _0015_
*117 _0016_
*118 _0017_
*119 _0018_
*120 _0019_
*121 _0020_
*122 _0021_
*123 _0022_
*124 _0023_
*125 _0024_
*126 _0025_
*127 _0026_
*128 _0027_
*129 _0028_
*130 _0029_
*131 _0030_
*132 _0031_
*133 _0032_
*134 _0033_
*135 _0034_
*136 _0035_
*137 _0036_
*138 _0037_
*139 _0038_
*140 _0039_
*141 _0040_
*142 _0041_
*143 _0042_
*144 _0043_
*145 _0044_
*146 _0045_
*147 _0046_
*148 _0047_
*149 _0048_
*150 _0049_
*151 _0050_
*152 _0051_
*153 _0052_
*154 _0053_
*155 _0054_
*156 _0055_
*157 _0056_
*158 _0057_
*159 _0058_
*160 _0059_
*161 _0060_
*162 _0061_
*163 _0062_
*164 _0063_
*165 _0064_
*166 _0065_
*167 _0066_
*168 _0067_
*169 _0068_
*170 _0069_
*171 _0070_
*172 _0071_
*173 _0072_
*174 _0073_
*175 _0074_
*176 _0075_
*177 _0076_
*178 _0077_
*179 _0078_
*180 _0079_
*181 _0080_
*182 _0081_
*183 _0082_
*184 _0083_
*185 _0084_
*186 _0085_
*187 _0086_
*188 _0087_
*189 _0088_
*190 _0089_
*191 _0090_
*192 _0091_
*193 _0092_
*194 _0093_
*195 _0094_
*196 _0095_
*197 _0096_
*198 _0097_
*199 _0098_
*200 _0099_
*201 _0100_
*202 _0101_
*203 _0102_
*204 _0103_
*205 _0104_
*206 _0105_
*207 _0106_
*208 _0107_
*209 _0108_
*210 _0109_
*211 _0110_
*212 _0111_
*213 _0112_
*214 _0113_
*215 _0114_
*216 _0115_
*217 _0116_
*218 _0117_
*219 _0118_
*220 _0119_
*221 _0120_
*222 _0121_
*223 _0122_
*224 _0123_
*225 _0124_
*226 _0125_
*227 _0126_
*228 _0127_
*229 _0128_
*230 _0129_
*231 _0130_
*232 _0131_
*233 _0132_
*234 _0133_
*235 _0134_
*236 _0135_
*237 _0136_
*238 _0137_
*239 _0138_
*240 _0139_
*241 _0140_
*242 _0141_
*243 _0142_
*244 _0143_
*245 _0144_
*246 _0145_
*247 _0146_
*248 _0147_
*249 _0148_
*250 _0149_
*251 _0150_
*252 _0151_
*253 _0152_
*254 _0153_
*255 _0154_
*256 _0155_
*257 _0156_
*258 _0157_
*259 _0158_
*260 _0159_
*261 _0160_
*262 _0161_
*263 _0162_
*264 _0163_
*265 _0164_
*266 _0165_
*267 _0166_
*268 _0167_
*269 _0168_
*270 _0169_
*271 _0170_
*272 _0171_
*273 _0172_
*274 _0173_
*275 _0174_
*276 _0175_
*277 _0176_
*278 _0177_
*279 _0178_
*280 _0179_
*281 _0180_
*282 _0181_
*283 _0182_
*284 _0183_
*285 _0184_
*286 _0185_
*287 _0186_
*288 _0187_
*289 _0188_
*290 _0189_
*291 _0190_
*292 _0191_
*293 _0192_
*294 _0193_
*295 _0194_
*296 _0195_
*297 _0196_
*298 _0197_
*299 _0198_
*300 _0199_
*301 _0200_
*302 _0201_
*303 _0202_
*304 _0203_
*305 _0204_
*306 _0205_
*307 _0206_
*308 _0207_
*309 _0208_
*310 _0209_
*311 _0210_
*312 _0211_
*313 _0212_
*314 _0213_
*315 _0214_
*316 _0215_
*317 _0216_
*318 _0217_
*319 _0218_
*320 _0219_
*321 _0220_
*322 _0221_
*323 _0222_
*324 _0223_
*325 _0224_
*326 _0225_
*327 _0226_
*328 _0227_
*329 _0228_
*330 _0229_
*331 _0230_
*332 _0231_
*333 _0232_
*334 _0233_
*335 _0234_
*336 _0235_
*337 _0236_
*338 _0237_
*339 _0238_
*340 _0239_
*341 _0240_
*342 _0241_
*343 _0242_
*344 _0243_
*345 _0244_
*346 _0245_
*347 _0246_
*348 _0247_
*349 _0248_
*350 _0249_
*351 _0250_
*352 _0251_
*353 _0252_
*354 _0253_
*355 _0254_
*356 _0255_
*357 _0256_
*358 _0257_
*359 _0258_
*360 _0259_
*361 _0260_
*362 _0261_
*363 _0262_
*364 _0263_
*365 _0264_
*366 _0265_
*367 _0266_
*368 _0267_
*369 _0268_
*370 _0269_
*371 _0270_
*372 _0271_
*373 _0272_
*374 _0273_
*375 _0274_
*376 _0275_
*377 _0276_
*378 _0277_
*379 _0278_
*380 _0279_
*381 _0280_
*382 _0281_
*383 _0282_
*384 _0283_
*385 _0284_
*386 _0285_
*387 _0286_
*388 _0287_
*389 _0288_
*390 _0289_
*391 _0290_
*392 _0291_
*393 _0292_
*394 _0293_
*395 _0294_
*396 _0295_
*397 _0296_
*398 _0297_
*399 _0298_
*400 _0299_
*401 _0300_
*402 _0301_
*403 _0302_
*404 _0303_
*405 _0304_
*406 _0305_
*407 _0306_
*408 _0307_
*409 _0308_
*410 _0309_
*411 _0310_
*412 _0311_
*413 _0312_
*414 _0313_
*415 _0314_
*416 _0315_
*417 _0316_
*418 _0317_
*419 _0318_
*420 _0319_
*421 _0320_
*422 _0321_
*423 _0322_
*424 _0323_
*425 _0324_
*426 _0325_
*427 _0326_
*428 _0327_
*429 _0328_
*430 _0329_
*431 _0330_
*432 _0331_
*433 _0332_
*434 _0333_
*435 _0334_
*436 _0335_
*437 _0336_
*438 _0337_
*439 _0338_
*440 _0339_
*441 _0340_
*442 _0341_
*443 _0342_
*444 _0343_
*445 _0344_
*446 _0345_
*447 _0346_
*448 _0347_
*449 _0348_
*450 _0349_
*451 _0350_
*452 _0351_
*453 _0352_
*454 _0353_
*455 _0354_
*456 _0355_
*457 _0356_
*458 _0357_
*459 _0358_
*460 _0359_
*461 _0360_
*462 _0361_
*463 _0362_
*464 _0363_
*465 _0364_
*466 _0365_
*467 _0366_
*468 _0367_
*469 _0368_
*470 _0369_
*471 _0370_
*472 _0371_
*473 _0372_
*474 _0373_
*475 _0374_
*476 _0375_
*477 _0376_
*478 _0377_
*479 _0378_
*480 _0379_
*481 _0380_
*482 _0381_
*483 _0382_
*484 _0383_
*485 _0384_
*486 _0385_
*487 _0386_
*488 _0387_
*489 _0388_
*490 _0389_
*491 _0390_
*492 _0391_
*493 _0392_
*494 _0393_
*495 _0394_
*496 _0395_
*497 _0396_
*498 _0397_
*499 _0398_
*500 _0399_
*501 _0400_
*502 _0401_
*503 _0402_
*504 _0403_
*505 _0404_
*506 _0405_
*507 _0406_
*508 _0407_
*509 _0408_
*510 _0409_
*511 _0410_
*512 _0411_
*513 _0412_
*514 _0413_
*515 _0414_
*516 _0415_
*517 _0416_
*518 _0417_
*519 _0418_
*520 _0419_
*521 _0420_
*522 _0421_
*523 _0422_
*524 _0423_
*525 _0424_
*526 _0425_
*527 _0426_
*528 _0427_
*529 _0428_
*530 _0429_
*531 _0430_
*532 _0431_
*533 _0432_
*534 _0433_
*535 _0434_
*536 _0435_
*537 _0436_
*538 _0437_
*539 _0438_
*540 _0439_
*541 _0440_
*542 _0441_
*543 _0442_
*544 _0443_
*545 _0444_
*546 _0445_
*547 _0446_
*548 _0447_
*549 _0448_
*550 _0449_
*551 _0450_
*552 _0451_
*553 _0452_
*554 _0453_
*555 _0454_
*556 _0455_
*557 _0456_
*558 _0457_
*559 _0458_
*560 _0459_
*561 _0460_
*562 _0461_
*563 _0462_
*564 _0463_
*565 _0464_
*566 _0465_
*567 _0466_
*568 _0467_
*569 _0468_
*570 _0469_
*571 _0470_
*572 _0471_
*573 _0472_
*574 _0473_
*575 _0474_
*576 _0475_
*577 _0476_
*578 _0477_
*579 _0478_
*580 _0479_
*581 _0480_
*582 _0481_
*583 _0482_
*584 _0483_
*585 _0484_
*586 _0485_
*587 _0486_
*588 _0487_
*589 _0488_
*590 _0489_
*591 _0490_
*592 _0491_
*593 _0492_
*594 _0493_
*595 _0494_
*596 _0495_
*597 _0496_
*598 _0497_
*599 _0498_
*600 _0499_
*601 _0500_
*602 _0501_
*603 _0502_
*604 _0503_
*605 _0504_
*606 _0505_
*607 _0506_
*608 _0507_
*609 _0508_
*610 _0509_
*611 _0510_
*612 _0511_
*613 _0512_
*614 _0513_
*615 _0514_
*616 _0515_
*617 _0516_
*618 _0517_
*619 _0518_
*620 _0519_
*621 _0520_
*622 _0521_
*623 _0522_
*624 _0523_
*625 _0524_
*626 _0525_
*627 _0526_
*628 _0527_
*629 _0528_
*630 _0529_
*631 _0530_
*632 _0531_
*633 _0532_
*634 _0533_
*635 _0534_
*636 _0535_
*637 _0536_
*638 _0537_
*639 _0538_
*640 _0539_
*641 _0540_
*642 _0541_
*643 _0542_
*644 _0543_
*645 _0544_
*646 _0545_
*647 _0546_
*648 _0547_
*649 _0548_
*650 _0549_
*651 _0550_
*652 _0551_
*653 _0552_
*654 _0553_
*655 _0554_
*656 _0555_
*657 _0556_
*658 _0557_
*659 _0558_
*660 _0559_
*661 _0560_
*662 _0561_
*663 _0562_
*664 _0563_
*665 _0564_
*666 _0565_
*667 _0566_
*668 _0567_
*669 _0568_
*670 _0569_
*671 _0570_
*672 _0571_
*673 _0572_
*674 _0573_
*675 _0574_
*676 _0575_
*677 _0576_
*678 _0577_
*679 _0578_
*680 _0579_
*681 _0580_
*682 _0581_
*683 _0582_
*684 _0583_
*685 _0584_
*686 _0585_
*687 _0586_
*688 _0587_
*689 _0588_
*690 _0589_
*691 _0590_
*692 _0591_
*693 _0592_
*694 _0593_
*695 _0594_
*696 _0595_
*697 _0596_
*698 _0597_
*699 _0598_
*700 _0599_
*701 _0600_
*702 _0601_
*703 _0602_
*704 _0603_
*705 _0604_
*706 _0605_
*707 _0606_
*708 _0607_
*709 _0608_
*710 _0609_
*711 _0610_
*712 _0611_
*713 _0612_
*714 _0613_
*715 _0614_
*716 _0615_
*717 _0616_
*718 _0617_
*719 _0618_
*720 _0619_
*721 _0620_
*722 _0621_
*723 _0622_
*724 _0623_
*725 _0624_
*726 _0625_
*727 _0626_
*728 _0627_
*729 _0628_
*730 _0629_
*731 _0630_
*732 _0631_
*733 _0632_
*734 _0633_
*735 _0634_
*736 _0635_
*737 _0636_
*738 _0637_
*739 _0638_
*740 _0639_
*741 _0640_
*742 _0641_
*743 _0642_
*744 _0643_
*745 _0644_
*746 _0645_
*747 _0646_
*748 _0647_
*749 _0648_
*750 _0649_
*751 _0650_
*752 _0651_
*753 _0652_
*754 _0653_
*755 _0654_
*756 _0655_
*757 _0656_
*758 _0657_
*759 _0658_
*760 _0659_
*761 _0660_
*762 _0661_
*763 _0662_
*764 _0663_
*765 _0664_
*766 _0665_
*767 _0666_
*768 _0667_
*769 _0668_
*770 _0669_
*771 _0670_
*772 _0671_
*773 _0672_
*774 _0673_
*775 _0674_
*776 _0675_
*777 _0676_
*778 _0677_
*779 _0678_
*780 _0679_
*781 _0680_
*782 _0681_
*783 _0682_
*784 _0683_
*785 _0684_
*786 _0685_
*787 _0686_
*788 _0687_
*789 _0688_
*790 _0689_
*791 _0690_
*792 _0691_
*793 _0692_
*794 _0693_
*795 _0694_
*796 _0695_
*797 _0696_
*798 _0697_
*799 _0698_
*800 _0699_
*801 _0700_
*802 _0701_
*803 _0702_
*804 _0703_
*805 _0704_
*806 _0705_
*807 _0706_
*808 _0707_
*809 _0708_
*810 _0709_
*811 _0710_
*812 _0711_
*813 _0712_
*814 _0713_
*815 _0714_
*816 _0715_
*817 _0716_
*818 _0717_
*819 _0718_
*820 _0719_
*821 _0720_
*822 _0721_
*823 _0722_
*824 _0723_
*825 _0724_
*826 _0725_
*827 _0726_
*828 _0727_
*829 _0728_
*830 _0729_
*831 _0730_
*832 _0731_
*833 _0732_
*834 _0733_
*835 _0734_
*836 _0735_
*837 _0736_
*838 _0737_
*839 _0738_
*840 _0739_
*841 _0740_
*842 _0741_
*843 _0742_
*844 _0743_
*845 _0744_
*846 _0745_
*847 _0746_
*848 _0747_
*849 _0748_
*850 _0749_
*851 _0750_
*852 _0751_
*853 _0752_
*854 _0753_
*855 _0754_
*856 _0755_
*857 _0756_
*858 _0757_
*859 _0758_
*860 _0759_
*861 _0760_
*862 _0761_
*863 _0762_
*864 _0763_
*865 _0764_
*866 _0765_
*867 _0766_
*868 _0767_
*869 _0768_
*870 _0769_
*871 _0770_
*872 _0771_
*873 _0772_
*874 _0773_
*875 _0774_
*876 _0775_
*877 _0776_
*878 _0777_
*879 _0778_
*880 _0779_
*881 _0780_
*882 _0781_
*883 _0782_
*884 _0783_
*885 _0784_
*886 _0785_
*887 _0786_
*888 _0787_
*889 _0788_
*890 _0789_
*891 _0790_
*892 _0791_
*893 _0792_
*894 _0793_
*895 _0794_
*896 _0795_
*897 _0796_
*898 _0797_
*899 _0798_
*900 _0799_
*901 _0800_
*902 _0801_
*903 _0802_
*904 _0803_
*905 _0804_
*906 _0805_
*907 _0806_
*908 _0807_
*909 _0808_
*910 _0809_
*911 _0810_
*912 _0811_
*913 _0812_
*914 _0813_
*915 _0814_
*916 _0815_
*917 _0816_
*918 _0817_
*919 _0818_
*920 _0819_
*921 _0820_
*922 _0821_
*923 _0822_
*924 _0823_
*925 _0824_
*926 _0825_
*927 _0826_
*928 _0827_
*929 _0828_
*930 _0829_
*931 _0830_
*932 _0831_
*933 _0832_
*934 _0833_
*935 _0834_
*936 _0835_
*937 _0836_
*938 _0837_
*939 _0838_
*940 _0839_
*941 _0840_
*942 _0841_
*943 _0842_
*944 _0843_
*945 _0844_
*946 _0845_
*947 _0846_
*948 _0847_
*949 _0848_
*950 _0849_
*951 _0850_
*952 _0851_
*953 _0852_
*954 _0853_
*955 _0854_
*956 _0855_
*957 _0856_
*958 _0857_
*959 _0858_
*960 _0859_
*961 _0860_
*962 _0861_
*963 _0862_
*964 _0863_
*965 _0864_
*966 _0865_
*967 _0866_
*968 _0867_
*969 _0868_
*970 _0869_
*971 _0870_
*972 _0871_
*973 _0872_
*974 _0873_
*975 _0874_
*976 _0875_
*977 _0876_
*978 _0877_
*979 _0878_
*980 _0879_
*981 _0880_
*982 _0881_
*983 _0882_
*984 _0883_
*985 _0884_
*986 _0885_
*987 _0886_
*988 _0887_
*989 _0888_
*990 _0889_
*991 _0890_
*992 _0891_
*993 _0892_
*994 _0893_
*995 _0894_
*996 _0895_
*997 _0896_
*998 _0897_
*999 _0898_
*1000 _0899_
*1001 _0900_
*1002 _0901_
*1003 _0902_
*1004 _0903_
*1005 _0904_
*1006 _0905_
*1007 _0906_
*1008 _0907_
*1009 _0908_
*1010 _0909_
*1011 _0910_
*1012 _0911_
*1013 _0912_
*1014 _0913_
*1015 _0914_
*1016 _0915_
*1017 _0916_
*1018 _0917_
*1019 _0918_
*1020 _0919_
*1021 _0920_
*1022 _0921_
*1023 _0922_
*1024 _0923_
*1025 _0924_
*1026 _0925_
*1027 _0926_
*1028 _0927_
*1029 _0928_
*1030 _0929_
*1031 _0930_
*1032 _0931_
*1033 _0932_
*1034 _0933_
*1035 _0934_
*1036 _0935_
*1037 _0936_
*1038 _0937_
*1039 _0938_
*1040 _0939_
*1041 _0940_
*1042 _0941_
*1043 _0942_
*1044 _0943_
*1045 _0944_
*1046 _0945_
*1047 _0946_
*1048 _0947_
*1049 _0948_
*1050 _0949_
*1051 _0950_
*1052 _0951_
*1053 _0952_
*1054 _0953_
*1055 _0954_
*1056 _0955_
*1057 _0956_
*1058 _0957_
*1059 _0958_
*1060 _0959_
*1061 _0960_
*1062 _0961_
*1063 _0962_
*1064 _0963_
*1065 _0964_
*1066 _0965_
*1067 _0966_
*1068 _0967_
*1069 _0968_
*1070 _0969_
*1071 _0970_
*1072 _0971_
*1073 _0972_
*1074 _0973_
*1075 _0974_
*1076 _0975_
*1077 _0976_
*1078 _0977_
*1079 _0978_
*1080 _0979_
*1081 _0980_
*1082 _0981_
*1083 _0982_
*1084 _0983_
*1085 _0984_
*1086 _0985_
*1087 _0986_
*1088 _0987_
*1089 _0988_
*1090 _0989_
*1091 _0990_
*1092 _0991_
*1093 _0992_
*1094 _0993_
*1095 _0994_
*1096 _0995_
*1097 _0996_
*1098 _0997_
*1099 _0998_
*1100 _0999_
*1101 _1000_
*1102 _1001_
*1103 _1002_
*1104 _1003_
*1105 _1004_
*1106 _1005_
*1107 _1006_
*1108 _1007_
*1109 _1008_
*1110 _1009_
*1111 _1010_
*1112 _1011_
*1113 _1012_
*1114 _1013_
*1115 _1014_
*1116 _1015_
*1117 _1016_
*1118 _1017_
*1119 _1018_
*1120 _1019_
*1121 _1020_
*1122 _1021_
*1123 _1022_
*1124 _1023_
*1125 _1024_
*1126 _1025_
*1127 _1026_
*1128 _1027_
*1129 _1028_
*1130 _1029_
*1131 _1030_
*1132 _1031_
*1133 _1032_
*1134 _1033_
*1135 _1034_
*1136 _1035_
*1137 _1036_
*1138 _1037_
*1139 _1038_
*1140 _1039_
*1141 _1040_
*1142 _1041_
*1143 _1042_
*1144 _1043_
*1145 _1044_
*1146 _1045_
*1147 _1046_
*1148 _1047_
*1149 _1048_
*1150 _1049_
*1151 _1050_
*1152 _1051_
*1153 _1052_
*1154 _1053_
*1155 _1054_
*1156 _1055_
*1157 _1056_
*1158 _1057_
*1159 _1058_
*1160 _1059_
*1161 _1060_
*1162 _1061_
*1163 _1062_
*1164 _1063_
*1165 _1064_
*1166 _1065_
*1167 _1066_
*1168 _1067_
*1169 _1068_
*1170 _1069_
*1171 _1070_
*1172 _1071_
*1173 _1072_
*1174 _1073_
*1175 _1074_
*1176 _1075_
*1177 _1076_
*1178 _1077_
*1179 _1078_
*1180 _1079_
*1181 _1080_
*1182 _1081_
*1183 _1082_
*1184 _1083_
*1185 _1084_
*1186 _1085_
*1187 _1086_
*1188 _1087_
*1189 _1088_
*1190 _1089_
*1191 _1090_
*1192 _1091_
*1193 _1092_
*1194 _1093_
*1195 _1094_
*1196 _1095_
*1197 _1096_
*1198 _1097_
*1199 _1098_
*1200 _1099_
*1201 _1100_
*1202 _1101_
*1203 _1102_
*1204 _1103_
*1205 _1104_
*1206 _1105_
*1207 _1106_
*1208 _1107_
*1209 _1108_
*1210 _1109_
*1211 _1110_
*1212 _1111_
*1213 _1112_
*1214 _1113_
*1215 _1114_
*1216 _1115_
*1217 _1116_
*1218 _1117_
*1219 _1118_
*1220 _1119_
*1221 _1120_
*1222 _1121_
*1223 _1122_
*1224 _1123_
*1225 _1124_
*1226 _1125_
*1227 _1126_
*1228 _1127_
*1229 _1128_
*1230 _1129_
*1231 _1130_
*1232 _1131_
*1233 _1132_
*1234 _1133_
*1235 _1134_
*1236 _1135_
*1237 _1136_
*1238 _1137_
*1239 _1138_
*1240 _1139_
*1241 _1140_
*1242 _1141_
*1243 _1142_
*1244 _1143_
*1245 _1144_
*1246 _1145_
*1247 _1146_
*1248 _1147_
*1249 _1148_
*1250 _1149_
*1251 _1150_
*1252 _1151_
*1253 _1152_
*1254 _1153_
*1255 _1154_
*1256 _1155_
*1257 _1156_
*1258 _1157_
*1259 _1158_
*1260 _1159_
*1261 _1160_
*1262 _1161_
*1263 _1162_
*1264 _1163_
*1265 _1164_
*1266 _1165_
*1267 _1166_
*1268 _1167_
*1269 _1168_
*1270 _1169_
*1271 _1170_
*1272 _1171_
*1273 _1172_
*1274 _1173_
*1275 _1174_
*1276 _1175_
*1277 _1176_
*1278 _1177_
*1279 _1178_
*1280 _1179_
*1281 _1180_
*1282 _1181_
*1283 _1182_
*1284 _1183_
*1285 _1184_
*1286 _1185_
*1287 _1186_
*1288 _1187_
*1289 _1188_
*1290 _1189_
*1291 _1190_
*1292 _1191_
*1293 _1192_
*1294 _1193_
*1295 _1194_
*1296 _1195_
*1297 _1196_
*1298 _1197_
*1299 _1198_
*1300 _1199_
*1301 _1200_
*1302 _1201_
*1303 _1202_
*1304 _1203_
*1305 _1204_
*1306 _1205_
*1307 _1206_
*1308 _1207_
*1309 _1208_
*1310 _1209_
*1311 _1210_
*1312 _1211_
*1313 _1212_
*1314 _1213_
*1315 _1214_
*1316 _1215_
*1317 _1216_
*1318 _1217_
*1319 _1218_
*1320 _1219_
*1321 _1220_
*1322 _1221_
*1323 _1222_
*1324 _1223_
*1325 _1224_
*1326 _1225_
*1327 _1226_
*1328 _1227_
*1329 _1228_
*1330 _1229_
*1331 _1230_
*1332 _1231_
*1333 _1232_
*1334 _1233_
*1335 _1234_
*1336 _1235_
*1337 _1236_
*1338 _1237_
*1339 _1238_
*1340 _1239_
*1341 _1240_
*1342 _1241_
*1343 _1242_
*1344 _1243_
*1345 _1244_
*1346 _1245_
*1347 _1246_
*1348 _1247_
*1349 _1248_
*1350 _1249_
*1351 _1250_
*1352 _1251_
*1353 _1252_
*1354 _1253_
*1355 _1254_
*1356 _1255_
*1357 _1256_
*1358 _1257_
*1359 _1258_
*1360 _1259_
*1361 _1260_
*1362 _1261_
*1363 _1262_
*1364 _1263_
*1365 _1264_
*1366 _1265_
*1367 _1266_
*1368 _1267_
*1369 _1268_
*1370 _1269_
*1371 _1270_
*1372 _1271_
*1373 _1272_
*1374 _1273_
*1375 _1274_
*1376 _1275_
*1377 _1276_
*1378 _1277_
*1379 _1278_
*1380 _1279_
*1381 _1280_
*1382 _1281_
*1383 _1282_
*1384 _1283_
*1385 _1284_
*1386 _1285_
*1387 _1286_
*1388 _1287_
*1389 _1288_
*1390 _1289_
*1391 _1290_
*1392 _1291_
*1393 _1292_
*1394 _1293_
*1395 _1294_
*1396 _1295_
*1397 _1296_
*1398 _1297_
*1399 _1298_
*1400 _1299_
*1401 _1300_
*1402 _1301_
*1403 _1302_
*1404 _1303_
*1405 _1304_
*1406 _1305_
*1407 _1306_
*1408 _1307_
*1409 _1308_
*1410 _1309_
*1411 _1310_
*1412 _1311_
*1413 _1312_
*1414 _1313_
*1415 _1314_
*1416 _1315_
*1417 _1316_
*1418 _1317_
*1419 _1318_
*1420 _1319_
*1421 _1320_
*1422 _1321_
*1423 _1322_
*1424 _1323_
*1425 _1324_
*1426 _1325_
*1427 _1326_
*1428 _1327_
*1429 _1328_
*1430 _1329_
*1431 _1330_
*1432 _1331_
*1433 _1332_
*1434 _1333_
*1435 _1334_
*1436 _1335_
*1437 _1336_
*1438 _1337_
*1439 _1338_
*1440 _1339_
*1441 _1340_
*1442 _1341_
*1443 _1342_
*1444 _1343_
*1445 _1344_
*1446 _1345_
*1447 _1346_
*1448 _1347_
*1449 _1348_
*1450 _1349_
*1451 _1350_
*1452 _1351_
*1453 _1352_
*1454 _1353_
*1455 _1354_
*1456 _1355_
*1457 _1356_
*1458 _1357_
*1459 _1358_
*1460 _1359_
*1461 _1360_
*1462 _1361_
*1463 _1362_
*1464 _1363_
*1465 _1364_
*1466 _1365_
*1467 _1366_
*1468 _1367_
*1469 _1368_
*1470 _1369_
*1471 _1370_
*1472 _1371_
*1473 _1372_
*1474 _1373_
*1475 _1374_
*1476 _1375_
*1477 _1376_
*1478 _1377_
*1479 _1378_
*1480 _1379_
*1481 _1380_
*1482 _1381_
*1483 _1382_
*1484 _1383_
*1485 _1384_
*1486 _1385_
*1487 _1386_
*1488 _1387_
*1489 _1388_
*1490 _1389_
*1491 _1390_
*1492 _1391_
*1493 _1392_
*1494 _1393_
*1495 _1394_
*1496 _1395_
*1497 _1396_
*1498 _1397_
*1499 _1398_
*1500 _1399_
*1501 _1400_
*1502 _1401_
*1503 _1402_
*1504 _1403_
*1505 _1404_
*1506 _1405_
*1507 _1406_
*1508 _1407_
*1509 _1408_
*1510 _1409_
*1511 _1410_
*1512 _1411_
*1513 _1412_
*1514 _1413_
*1515 _1414_
*1516 _1415_
*1517 _1416_
*1518 _1417_
*1519 _1418_
*1520 _1419_
*1521 _1420_
*1522 _1421_
*1523 _1422_
*1524 _1423_
*1525 _1424_
*1526 _1425_
*1527 _1426_
*1528 _1427_
*1529 _1428_
*1530 _1429_
*1531 _1430_
*1532 _1431_
*1533 _1432_
*1534 _1433_
*1535 _1434_
*1536 _1435_
*1537 _1436_
*1538 _1437_
*1539 _1438_
*1540 _1439_
*1541 _1440_
*1542 _1441_
*1543 _1442_
*1544 _1443_
*1545 _1444_
*1546 _1445_
*1547 _1446_
*1548 _1447_
*1549 _1448_
*1550 _1449_
*1551 _1450_
*1552 _1451_
*1553 _1452_
*1554 _1453_
*1555 _1454_
*1556 _1455_
*1557 _1456_
*1558 _1457_
*1559 _1458_
*1560 _1459_
*1561 _1460_
*1562 _1461_
*1563 _1462_
*1564 _1463_
*1565 _1464_
*1566 _1465_
*1567 _1466_
*1568 _1467_
*1569 _1468_
*1570 _1469_
*1571 _1470_
*1572 _1471_
*1573 _1472_
*1574 _1473_
*1575 _1474_
*1576 net1
*1577 net10
*1578 net11
*1579 net12
*1580 net13
*1581 net14
*1582 net15
*1583 net16
*1584 net17
*1585 net18
*1586 net19
*1587 net2
*1588 net20
*1589 net21
*1590 net22
*1591 net23
*1592 net24
*1593 net25
*1594 net26
*1595 net27
*1596 net28
*1597 net29
*1598 net3
*1599 net30
*1600 net31
*1601 net32
*1602 net33
*1603 net34
*1604 net35
*1605 net36
*1606 net37
*1607 net38
*1608 net39
*1609 net4
*1610 net40
*1611 net41
*1612 net42
*1613 net43
*1614 net44
*1615 net45
*1616 net46
*1617 net47
*1618 net48
*1619 net49
*1620 net5
*1621 net50
*1622 net51
*1623 net52
*1624 net53
*1625 net54
*1626 net55
*1627 net56
*1628 net57
*1629 net58
*1630 net59
*1631 net6
*1632 net60
*1633 net61
*1634 net62
*1635 net63
*1636 net64
*1637 net65
*1638 net66
*1639 net67
*1640 net68
*1641 net69
*1642 net7
*1643 net70
*1644 net71
*1645 net72
*1646 net73
*1647 net74
*1648 net75
*1649 net76
*1650 net77
*1651 net78
*1652 net79
*1653 net8
*1654 net80
*1655 net81
*1656 net82
*1657 net83
*1658 net84
*1659 net85
*1660 net86
*1661 net87
*1662 net88
*1663 net89
*1664 net9
*1665 net90
*1666 net91
*1667 net92
*1668 net93
*1669 net94
*1670 net95
*1671 net96
*1672 ANTENNA__1478__B
*1673 ANTENNA__1479__A
*1674 ANTENNA__1479__B
*1675 ANTENNA__1480__A2
*1676 ANTENNA__1482__A2
*1677 ANTENNA__1482__B1
*1678 ANTENNA__1482__B2
*1679 ANTENNA__1483__A1
*1680 ANTENNA__1483__A2
*1681 ANTENNA__1484__A2
*1682 ANTENNA__1485__A1
*1683 ANTENNA__1485__A2
*1684 ANTENNA__1486__A1
*1685 ANTENNA__1486__A2
*1686 ANTENNA__1487__B
*1687 ANTENNA__1488__A
*1688 ANTENNA__1489__A
*1689 ANTENNA__1490__A1_N
*1690 ANTENNA__1491__B
*1691 ANTENNA__1495__A1
*1692 ANTENNA__1495__A2
*1693 ANTENNA__1501__A
*1694 ANTENNA__1503__B
*1695 ANTENNA__1506__A
*1696 ANTENNA__1521__A
*1697 ANTENNA__1528__A1
*1698 ANTENNA__1528__A2
*1699 ANTENNA__1532__A
*1700 ANTENNA__1533__A0
*1701 ANTENNA__1533__A1
*1702 ANTENNA__1534__A
*1703 ANTENNA__1538__A
*1704 ANTENNA__1540__A
*1705 ANTENNA__1556__B2
*1706 ANTENNA__1560__A1
*1707 ANTENNA__1565__A
*1708 ANTENNA__1570__B
*1709 ANTENNA__1577__A
*1710 ANTENNA__1577__B
*1711 ANTENNA__1580__A1
*1712 ANTENNA__1582__A
*1713 ANTENNA__1601__A
*1714 ANTENNA__1603__A1
*1715 ANTENNA__1611__A
*1716 ANTENNA__1611__B
*1717 ANTENNA__1618__A
*1718 ANTENNA__1621__A
*1719 ANTENNA__1639__A
*1720 ANTENNA__1640__A1
*1721 ANTENNA__1642__A
*1722 ANTENNA__1643__A1
*1723 ANTENNA__1643__B2
*1724 ANTENNA__1649__A1_N
*1725 ANTENNA__1655__B
*1726 ANTENNA__1656__A0
*1727 ANTENNA__1656__A1
*1728 ANTENNA__1679__A
*1729 ANTENNA__1682__A1
*1730 ANTENNA__1686__A
*1731 ANTENNA__1706__A
*1732 ANTENNA__1707__A
*1733 ANTENNA__1711__A1
*1734 ANTENNA__1715__A1
*1735 ANTENNA__1717__A1
*1736 ANTENNA__1730__A
*1737 ANTENNA__1731__A
*1738 ANTENNA__1733__B2
*1739 ANTENNA__1734__A1
*1740 ANTENNA__1746__A
*1741 ANTENNA__1752__A2
*1742 ANTENNA__1752__B1
*1743 ANTENNA__1754__A
*1744 ANTENNA__1757__A
*1745 ANTENNA__1759__A
*1746 ANTENNA__1762__C
*1747 ANTENNA__1763__A
*1748 ANTENNA__1765__A
*1749 ANTENNA__1767__B
*1750 ANTENNA__1768__A
*1751 ANTENNA__1771__A
*1752 ANTENNA__1780__A
*1753 ANTENNA__1783__A
*1754 ANTENNA__1788__A
*1755 ANTENNA__1791__A
*1756 ANTENNA__1792__C1
*1757 ANTENNA__1794__B
*1758 ANTENNA__1795__A1
*1759 ANTENNA__1796__A
*1760 ANTENNA__1797__A
*1761 ANTENNA__1802__A
*1762 ANTENNA__1804__A
*1763 ANTENNA__1811__A
*1764 ANTENNA__1811__B
*1765 ANTENNA__1814__A_N
*1766 ANTENNA__1824__A
*1767 ANTENNA__1825__A1
*1768 ANTENNA__1830__A
*1769 ANTENNA__1834__A
*1770 ANTENNA__1835__A
*1771 ANTENNA__1844__A_N
*1772 ANTENNA__1844__B
*1773 ANTENNA__1848__A2_N
*1774 ANTENNA__1849__A
*1775 ANTENNA__1863__A
*1776 ANTENNA__1867__A
*1777 ANTENNA__1871__A
*1778 ANTENNA__1872__A
*1779 ANTENNA__1873__A
*1780 ANTENNA__1873__B
*1781 ANTENNA__1877__A
*1782 ANTENNA__1877__B
*1783 ANTENNA__1880__A1
*1784 ANTENNA__1880__A2
*1785 ANTENNA__1880__B1
*1786 ANTENNA__1882__B
*1787 ANTENNA__1891__B
*1788 ANTENNA__1894__A
*1789 ANTENNA__1903__A
*1790 ANTENNA__1904__B1
*1791 ANTENNA__1905__A1
*1792 ANTENNA__1909__A
*1793 ANTENNA__1910__A
*1794 ANTENNA__1913__A
*1795 ANTENNA__1917__B1
*1796 ANTENNA__1918__A1
*1797 ANTENNA__1920__A
*1798 ANTENNA__1920__B
*1799 ANTENNA__1924__A
*1800 ANTENNA__1928__B1
*1801 ANTENNA__1929__A
*1802 ANTENNA__1930__A
*1803 ANTENNA__1931__A
*1804 ANTENNA__1933__A1
*1805 ANTENNA__1933__A2
*1806 ANTENNA__1937__A
*1807 ANTENNA__1937__B
*1808 ANTENNA__1941__A
*1809 ANTENNA__1941__B
*1810 ANTENNA__1946__A
*1811 ANTENNA__1955__A
*1812 ANTENNA__1964__A
*1813 ANTENNA__1968__A
*1814 ANTENNA__1968__B
*1815 ANTENNA__1970__A1
*1816 ANTENNA__1970__B1
*1817 ANTENNA__1971__A1
*1818 ANTENNA__1972__A
*1819 ANTENNA__1980__A2
*1820 ANTENNA__1982__A2
*1821 ANTENNA__1984__A
*1822 ANTENNA__1991__A1_N
*1823 ANTENNA__2005__A1
*1824 ANTENNA__2011__A
*1825 ANTENNA__2012__A
*1826 ANTENNA__2013__A
*1827 ANTENNA__2018__B
*1828 ANTENNA__2021__A
*1829 ANTENNA__2021__B
*1830 ANTENNA__2027__B1
*1831 ANTENNA__2028__A
*1832 ANTENNA__2028__B
*1833 ANTENNA__2032__A
*1834 ANTENNA__2032__B
*1835 ANTENNA__2038__A1
*1836 ANTENNA__2039__A
*1837 ANTENNA__2063__A
*1838 ANTENNA__2065__A
*1839 ANTENNA__2065__B
*1840 ANTENNA__2066__A1
*1841 ANTENNA__2066__B1
*1842 ANTENNA__2067__A1
*1843 ANTENNA__2071__A2
*1844 ANTENNA__2075__B1
*1845 ANTENNA__2076__A
*1846 ANTENNA__2078__B
*1847 ANTENNA__2084__A1
*1848 ANTENNA__2084__A2
*1849 ANTENNA__2085__A
*1850 ANTENNA__2086__A
*1851 ANTENNA__2086__B
*1852 ANTENNA__2089__A
*1853 ANTENNA__2089__B
*1854 ANTENNA__2093__A
*1855 ANTENNA__2112__A
*1856 ANTENNA__2113__A
*1857 ANTENNA__2124__A
*1858 ANTENNA__2128__A
*1859 ANTENNA__2128__B
*1860 ANTENNA__2129__A
*1861 ANTENNA__2130__A1
*1862 ANTENNA__2132__A
*1863 ANTENNA__2133__B
*1864 ANTENNA__2134__B
*1865 ANTENNA__2139__A2
*1866 ANTENNA__2140__B1
*1867 ANTENNA__2141__B
*1868 ANTENNA__2147__A1_N
*1869 ANTENNA__2150__B
*1870 ANTENNA__2153__A
*1871 ANTENNA__2177__A1
*1872 ANTENNA__2177__A2
*1873 ANTENNA__2177__B1
*1874 ANTENNA__2178__A1
*1875 ANTENNA__2179__A
*1876 ANTENNA__2179__B
*1877 ANTENNA__2182__A
*1878 ANTENNA__2182__B
*1879 ANTENNA__2188__A2
*1880 ANTENNA__2190__B
*1881 ANTENNA__2190__C
*1882 ANTENNA__2191__A1
*1883 ANTENNA__2191__A2
*1884 ANTENNA__2191__B1
*1885 ANTENNA__2198__B1
*1886 ANTENNA__2199__A
*1887 ANTENNA__2199__B
*1888 ANTENNA__2202__A1
*1889 ANTENNA__2205__A
*1890 ANTENNA__2206__A
*1891 ANTENNA__2206__B
*1892 ANTENNA__2237__A2
*1893 ANTENNA__2239__A
*1894 ANTENNA__2242__A2
*1895 ANTENNA__2248__A2
*1896 ANTENNA__2249__A2
*1897 ANTENNA__2249__B1
*1898 ANTENNA__2250__B
*1899 ANTENNA__2254__B1
*1900 ANTENNA__2255__B
*1901 ANTENNA__2257__A1
*1902 ANTENNA__2262__A
*1903 ANTENNA__2262__B
*1904 ANTENNA__2264__A
*1905 ANTENNA__2264__B
*1906 ANTENNA__2267__A
*1907 ANTENNA__2269__B
*1908 ANTENNA__2299__A
*1909 ANTENNA__2300__A0
*1910 ANTENNA__2300__A1
*1911 ANTENNA__2300__S
*1912 ANTENNA__2303__A
*1913 ANTENNA__2304__A1
*1914 ANTENNA__2312__B1
*1915 ANTENNA__2313__A2
*1916 ANTENNA__2313__B1
*1917 ANTENNA__2314__A
*1918 ANTENNA__2314__C
*1919 ANTENNA__2321__A
*1920 ANTENNA__2321__B
*1921 ANTENNA__2327__B1
*1922 ANTENNA__2327__B2
*1923 ANTENNA__2333__B
*1924 ANTENNA__2335__A1_N
*1925 ANTENNA__2355__A
*1926 ANTENNA__2357__A
*1927 ANTENNA__2362__B
*1928 ANTENNA__2367__A
*1929 ANTENNA__2367__B
*1930 ANTENNA__2367__C
*1931 ANTENNA__2370__B2
*1932 ANTENNA__2371__A2
*1933 ANTENNA__2372__B1
*1934 ANTENNA__2373__A
*1935 ANTENNA__2377__A
*1936 ANTENNA__2389__A1
*1937 ANTENNA__2395__A
*1938 ANTENNA__2395__B
*1939 ANTENNA__2405__A1
*1940 ANTENNA__2406__B
*1941 ANTENNA__2415__A
*1942 ANTENNA__2415__B
*1943 ANTENNA__2417__A
*1944 ANTENNA__2417__C
*1945 ANTENNA__2418__A1
*1946 ANTENNA__2418__A2
*1947 ANTENNA__2419__A
*1948 ANTENNA__2427__A
*1949 ANTENNA__2428__A
*1950 ANTENNA__2437__C
*1951 ANTENNA__2438__A
*1952 ANTENNA__2446__A
*1953 ANTENNA__2446__B
*1954 ANTENNA__2447__A
*1955 ANTENNA__2452__A
*1956 ANTENNA__2454__A2
*1957 ANTENNA__2455__A1
*1958 ANTENNA__2455__A2
*1959 ANTENNA__2461__B1
*1960 ANTENNA__2461__B2
*1961 ANTENNA__2465__A1
*1962 ANTENNA__2472__A1
*1963 ANTENNA__2473__B
*1964 ANTENNA__2482__B
*1965 ANTENNA__2484__A1
*1966 ANTENNA__2485__A1
*1967 ANTENNA__2486__B
*1968 ANTENNA__2487__A
*1969 ANTENNA__2488__B2
*1970 ANTENNA__2489__B1
*1971 ANTENNA__2490__C
*1972 ANTENNA__2494__A
*1973 ANTENNA__2502__B1
*1974 ANTENNA__2503__A
*1975 ANTENNA__2510__A
*1976 ANTENNA__2518__A
*1977 ANTENNA__2518__B
*1978 ANTENNA__2519__A
*1979 ANTENNA__2519__B
*1980 ANTENNA__2523__A1
*1981 ANTENNA__2524__A
*1982 ANTENNA__2526__A
*1983 ANTENNA__2529__B
*1984 ANTENNA__2530__A1
*1985 ANTENNA__2542__B1
*1986 ANTENNA__2542__B2
*1987 ANTENNA__2548__A2
*1988 ANTENNA__2552__A
*1989 ANTENNA__2557__B
*1990 ANTENNA__2565__A
*1991 ANTENNA__2566__A
*1992 ANTENNA__2566__B
*1993 ANTENNA__2567__A1_N
*1994 ANTENNA__2567__B2
*1995 ANTENNA__2569__B1
*1996 ANTENNA__2570__C
*1997 ANTENNA__2585__A
*1998 ANTENNA__2586__B1
*1999 ANTENNA__2588__B1
*2000 ANTENNA__2595__A
*2001 ANTENNA__2595__B
*2002 ANTENNA__2595__C
*2003 ANTENNA__2599__B1
*2004 ANTENNA__2600__A
*2005 ANTENNA__2604__A1
*2006 ANTENNA__2604__A2
*2007 ANTENNA__2609__A1
*2008 ANTENNA__2610__B
*2009 ANTENNA__2614__A
*2010 ANTENNA__2614__B
*2011 ANTENNA__2615__A
*2012 ANTENNA__2615__C
*2013 ANTENNA__2616__A1
*2014 ANTENNA__2616__A3
*2015 ANTENNA__2617__B1
*2016 ANTENNA__2618__A1
*2017 ANTENNA__2632__B
*2018 ANTENNA__2633__A1
*2019 ANTENNA__2635__B1
*2020 ANTENNA__2636__C
*2021 ANTENNA__2664__A1
*2022 ANTENNA__2664__A2
*2023 ANTENNA__2668__B1
*2024 ANTENNA__2675__A1
*2025 ANTENNA__2676__B
*2026 ANTENNA__2679__A
*2027 ANTENNA__2679__C
*2028 ANTENNA__2681__A1
*2029 ANTENNA__2681__A2
*2030 ANTENNA__2682__D1
*2031 ANTENNA__2692__A1
*2032 ANTENNA__2694__B1
*2033 ANTENNA__2695__C
*2034 ANTENNA__2705__A
*2035 ANTENNA__2712__A
*2036 ANTENNA__2723__A
*2037 ANTENNA__2727__A1
*2038 ANTENNA__2728__B
*2039 ANTENNA__2732__B1
*2040 ANTENNA__2733__A
*2041 ANTENNA__2741__A1
*2042 ANTENNA__2742__B
*2043 ANTENNA__2755__A
*2044 ANTENNA__2755__B
*2045 ANTENNA__2758__B
*2046 ANTENNA__2780__A1
*2047 ANTENNA__2787__B
*2048 ANTENNA__2791__B
*2049 ANTENNA__2793__B1
*2050 ANTENNA__2799__A
*2051 ANTENNA__2799__B
*2052 ANTENNA__2799__C
*2053 ANTENNA__2808__A
*2054 ANTENNA__2812__B
*2055 ANTENNA__2824__A1
*2056 ANTENNA__2824__A2
*2057 ANTENNA__2826__B
*2058 ANTENNA__2835__A
*2059 ANTENNA__2836__A1
*2060 ANTENNA__2838__B
*2061 ANTENNA__2840__B1
*2062 ANTENNA__2846__A1
*2063 ANTENNA__2848__A
*2064 ANTENNA__2851__A1